%nproc=16
%mem=60GB
#P PBE1PBE/def2TZVP opt freq EmpiricalDispersion=GD3 Int=(grid=99590) scrf=(iefpcm, solvent=water) 

pfp-OH_product2

0 1
C                  0.36616242   -0.24961800    0.31228337
C                  0.97304172   -0.89366715   -0.77437212
C                 -1.00927438    0.01789638    0.28922588
C                  0.20448404   -1.27020286   -1.88408466
C                 -1.77783208   -0.35863946   -0.82048659
C                 -1.17095304   -1.00268988   -1.90714147
O                  1.15040500    0.13460242    1.44464296
H                  1.16330170   -0.58224075    2.08305470
F                  2.29803011   -1.15137303   -0.75215875
F                 -1.59389493    0.63832271    1.33602576
F                 -3.10282202   -0.10094118   -0.84269632
F                  0.78910380   -1.89063310   -2.93088265
F                 -1.91132231   -1.36541737   -2.97615135

