%nproc=16
%mem=60GB
#P PBE1PBE/def2TZVP opt=(calcfc, ts, noeigentest) freq EmpiricalDispersion=GD3 Int=(grid=99590) scrf=(iefpcm, solvent=water) 

tfp-pyridine_ts1 

0 1
H                 -2.25353806    1.59791256    0.22679225
O                 -1.73884860   -0.62557766    1.07659638
C                 -2.08096567   -0.70975340   -0.13147685
N                 -3.04699877    1.02688186    0.01621197
H                 -3.43897986    1.31054038   -0.85893869
C                 -4.05432467    1.17761074    1.07615316
H                 -4.90332764    0.56660792    0.85083226
H                 -3.63490492    0.87409611    2.01256436
H                 -4.35796508    2.20184242    1.13658469
C                 -3.46111330   -1.28329814   -0.50274356
H                 -3.38305914   -2.34198828   -0.63684327
H                 -4.15739226   -1.07357945    0.28218553
H                 -3.80182222   -0.83282855   -1.41153098
O                 -1.18816940   -0.27283046   -1.15953966
C                  0.01864461    0.21477641   -0.56730704
C                  0.14424296    1.55954928   -0.21593503
C                  1.09152559   -0.64575711   -0.33053759
C                  1.33835607    2.01039935    0.36298365
C                  2.26248779   -0.14101086    0.25118184
N                  2.35476877    1.15867505    0.57912589
F                  3.30505006   -0.96655513    0.48364817
F                  1.00229584   -1.95220204   -0.65877486
F                 -0.87497123    2.41813328   -0.43165698
F                  1.46821677    3.30965517    0.70586921

