%nproc=24
%mem=64GB
#P PBE1PBE/def2TZVP opt freq EmpiricalDispersion=GD3 Int=(grid=99590) scrf=(iefpcm, solvent=water) 

pfp_ester-oh reactant

0 1
O                  2.46438875    0.53706924   -1.37593035
C                  1.86680575   -0.47840617   -1.09723915
O                  0.47931675   -0.64068276   -1.34429535
C                 -0.72372525   -0.40231476   -0.80203835
C                 -1.30213925   -1.30716576    0.09298465
C                 -1.42081025    0.75690224   -1.14863435
C                 -2.54434225   -1.03714076    0.65000165
C                 -2.66281725    1.01622624   -0.58359735
C                 -3.22613225    0.12648224    0.31964465
F                 -0.76455225   -2.21863376    0.32898665
F                 -0.97246525    1.42742524   -1.87400835
F                 -2.98773025   -1.74566876    1.34105265
F                 -3.19785025    1.91801824   -0.85988235
F                 -4.19863925    0.32973424    0.75143365
C                  2.41726655   -1.63090357   -0.23680749
H                  1.83434035   -2.55353328   -0.47548512
H                  2.24464826   -1.37740668    0.83741068
O                  3.80987815   -1.83203688   -0.49191204
H                  4.14126711   -2.53333493    0.07374015

