%nproc=16
%mem=60GB
#P PBE1PBE/def2TZVP opt freq EmpiricalDispersion=GD3 Int=(grid=99590) scrf=(iefpcm, solvent=water) 

tfp-pyridine-OH_product2

0 1
C                 -1.91532422   -1.56973146    0.00097213
C                 -0.51395234   -1.54794853   -0.00007834
C                  0.15180014   -0.32139872   -0.00078774
C                 -0.60162491    0.85333608   -0.00042728
C                 -2.00085414    0.77286742    0.00063171
N                 -2.61451941   -0.42239868    0.00129888
O                  1.58084757   -0.26922336   -0.00186509
H                  1.90131106   -0.25739154    0.90299024
F                  0.01162087    2.05601192   -0.00109048
F                  0.18536481   -2.70270193   -0.00040300
F                 -2.56724915   -2.75188772    0.00166067
F                 -2.73725110    1.90433522    0.00098412

